<?xml version="1.0" encoding="UTF-8"?>

<!-- generated on 11/11/19 16:20:49 by Eclipse SUMO netedit Version v1_3_1+0555-c0a1b3e52e
<configuration xmlns:xsi="http://www.w3.org/2001/XMLSchema-instance" xsi:noNamespaceSchemaLocation="http://sumo.dlr.de/xsd/netconvertConfiguration.xsd">

    <input>
        <sumo-net-file value="C:\Users\DellA003\Models\SUMO_NormRevision\map\highway.net.xml"/>
    </input>

    <output>
        <output-file value="C:\Users\DellA003\Models\SUMO_NormRevision\map\highway.net.xml"/>
    </output>

    <processing>
        <geometry.max-grade.fix value="false"/>
        <offset.disable-normalization value="true"/>
        <lefthand value="false"/>
    </processing>

    <junctions>
        <no-turnarounds value="true"/>
        <junctions.corner-detail value="5"/>
        <junctions.limit-turn-speed value="5.5"/>
        <rectangular-lane-cut value="false"/>
    </junctions>

    <pedestrian>
        <walkingareas value="false"/>
    </pedestrian>

</configuration>
-->

<net version="1.3" junctionCornerDetail="5" limitTurnSpeed="5.50" xmlns:xsi="http://www.w3.org/2001/XMLSchema-instance" xsi:noNamespaceSchemaLocation="http://sumo.dlr.de/xsd/net_file.xsd">

    <location netOffset="0.00,0.00" convBoundary="0.00,100.00,1000.00,100.00" origBoundary="-10000000000.00,-10000000000.00,10000000000.00,10000000000.00" projParameter="!"/>

    <edge id=":gneJ24_0" function="internal">
        <lane id=":gneJ24_0_0" index="0" speed="100.00" length="0.10" shape="100.00,92.00 100.00,92.00"/>
        <lane id=":gneJ24_0_1" index="1" speed="100.00" length="0.10" shape="100.00,95.20 100.00,95.20"/>
        <lane id=":gneJ24_0_2" index="2" speed="100.00" length="0.10" shape="100.00,98.40 100.00,98.40"/>
    </edge>
    <edge id=":gneJ27_0" function="internal">
        <lane id=":gneJ27_0_0" index="0" speed="100.00" length="0.10" shape="200.00,92.00 200.00,92.00"/>
        <lane id=":gneJ27_0_1" index="1" speed="100.00" length="0.10" shape="200.00,95.20 200.00,95.20"/>
        <lane id=":gneJ27_0_2" index="2" speed="100.00" length="0.10" shape="200.00,98.40 200.00,98.40"/>
    </edge>
    <edge id=":gneJ30_0" function="internal">
        <lane id=":gneJ30_0_0" index="0" speed="100.00" length="0.10" shape="300.00,92.00 300.00,92.00"/>
        <lane id=":gneJ30_0_1" index="1" speed="100.00" length="0.10" shape="300.00,95.20 300.00,95.20"/>
        <lane id=":gneJ30_0_2" index="2" speed="100.00" length="0.10" shape="300.00,98.40 300.00,98.40"/>
    </edge>
    <edge id=":gneJ31_0" function="internal">
        <lane id=":gneJ31_0_0" index="0" speed="100.00" length="0.10" shape="400.00,92.00 400.00,92.00"/>
        <lane id=":gneJ31_0_1" index="1" speed="100.00" length="0.10" shape="400.00,95.20 400.00,95.20"/>
        <lane id=":gneJ31_0_2" index="2" speed="100.00" length="0.10" shape="400.00,98.40 400.00,98.40"/>
    </edge>
    <edge id=":gneJ32_0" function="internal">
        <lane id=":gneJ32_0_0" index="0" speed="100.00" length="0.10" shape="500.00,92.00 500.00,92.00"/>
        <lane id=":gneJ32_0_1" index="1" speed="100.00" length="0.10" shape="500.00,95.20 500.00,95.20"/>
        <lane id=":gneJ32_0_2" index="2" speed="100.00" length="0.10" shape="500.00,98.40 500.00,98.40"/>
    </edge>
    <edge id=":gneJ33_0" function="internal">
        <lane id=":gneJ33_0_0" index="0" speed="100.00" length="0.10" shape="600.00,92.00 600.00,92.00"/>
        <lane id=":gneJ33_0_1" index="1" speed="100.00" length="0.10" shape="600.00,95.20 600.00,95.20"/>
        <lane id=":gneJ33_0_2" index="2" speed="100.00" length="0.10" shape="600.00,98.40 600.00,98.40"/>
    </edge>
    <edge id=":gneJ34_0" function="internal">
        <lane id=":gneJ34_0_0" index="0" speed="100.00" length="0.10" shape="700.00,92.00 700.00,92.00"/>
        <lane id=":gneJ34_0_1" index="1" speed="100.00" length="0.10" shape="700.00,95.20 700.00,95.20"/>
        <lane id=":gneJ34_0_2" index="2" speed="100.00" length="0.10" shape="700.00,98.40 700.00,98.40"/>
    </edge>
    <edge id=":gneJ37_0" function="internal">
        <lane id=":gneJ37_0_0" index="0" speed="100.00" length="0.10" shape="800.00,92.00 800.00,92.00"/>
        <lane id=":gneJ37_0_1" index="1" speed="100.00" length="0.10" shape="800.00,95.20 800.00,95.20"/>
        <lane id=":gneJ37_0_2" index="2" speed="100.00" length="0.10" shape="800.00,98.40 800.00,98.40"/>
    </edge>
    <edge id=":gneJ38_0" function="internal">
        <lane id=":gneJ38_0_0" index="0" speed="100.00" length="0.10" shape="900.00,92.00 900.00,92.00"/>
        <lane id=":gneJ38_0_1" index="1" speed="100.00" length="0.10" shape="900.00,95.20 900.00,95.20"/>
        <lane id=":gneJ38_0_2" index="2" speed="100.00" length="0.10" shape="900.00,98.40 900.00,98.40"/>
    </edge>

    <edge id="km1" from="gneJ23" to="gneJ24" priority="-1">
        <lane id="km1_0" index="0" speed="100.00" length="100.00" shape="0.00,92.00 100.00,92.00"/>
        <lane id="km1_1" index="1" speed="100.00" length="100.00" shape="0.00,95.20 100.00,95.20"/>
        <lane id="km1_2" index="2" speed="100.00" length="100.00" shape="0.00,98.40 100.00,98.40"/>
    </edge>
    <edge id="km10" from="gneJ38" to="gneJ39" priority="-1">
        <lane id="km10_0" index="0" speed="100.00" length="100.00" shape="900.00,92.00 1000.00,92.00"/>
        <lane id="km10_1" index="1" speed="100.00" length="100.00" shape="900.00,95.20 1000.00,95.20"/>
        <lane id="km10_2" index="2" speed="100.00" length="100.00" shape="900.00,98.40 1000.00,98.40"/>
    </edge>
    <edge id="km2" from="gneJ24" to="gneJ27" priority="-1">
        <lane id="km2_0" index="0" speed="100.00" length="100.00" shape="100.00,92.00 200.00,92.00"/>
        <lane id="km2_1" index="1" speed="100.00" length="100.00" shape="100.00,95.20 200.00,95.20"/>
        <lane id="km2_2" index="2" speed="100.00" length="100.00" shape="100.00,98.40 200.00,98.40"/>
    </edge>
    <edge id="km3" from="gneJ27" to="gneJ30" priority="-1">
        <lane id="km3_0" index="0" speed="100.00" length="100.00" shape="200.00,92.00 300.00,92.00"/>
        <lane id="km3_1" index="1" speed="100.00" length="100.00" shape="200.00,95.20 300.00,95.20"/>
        <lane id="km3_2" index="2" speed="100.00" length="100.00" shape="200.00,98.40 300.00,98.40"/>
    </edge>
    <edge id="km4" from="gneJ30" to="gneJ31" priority="-1">
        <lane id="km4_0" index="0" speed="100.00" length="100.00" shape="300.00,92.00 400.00,92.00"/>
        <lane id="km4_1" index="1" speed="100.00" length="100.00" shape="300.00,95.20 400.00,95.20"/>
        <lane id="km4_2" index="2" speed="100.00" length="100.00" shape="300.00,98.40 400.00,98.40"/>
    </edge>
    <edge id="km5" from="gneJ31" to="gneJ32" priority="-1">
        <lane id="km5_0" index="0" speed="100.00" length="100.00" shape="400.00,92.00 500.00,92.00"/>
        <lane id="km5_1" index="1" speed="100.00" length="100.00" shape="400.00,95.20 500.00,95.20"/>
        <lane id="km5_2" index="2" speed="100.00" length="100.00" shape="400.00,98.40 500.00,98.40"/>
    </edge>
    <edge id="km6" from="gneJ32" to="gneJ33" priority="-1">
        <lane id="km6_0" index="0" speed="100.00" length="100.00" shape="500.00,92.00 600.00,92.00"/>
        <lane id="km6_1" index="1" speed="100.00" length="100.00" shape="500.00,95.20 600.00,95.20"/>
        <lane id="km6_2" index="2" speed="100.00" length="100.00" shape="500.00,98.40 600.00,98.40"/>
    </edge>
    <edge id="km7" from="gneJ33" to="gneJ34" priority="-1">
        <lane id="km7_0" index="0" speed="100.00" length="100.00" shape="600.00,92.00 700.00,92.00"/>
        <lane id="km7_1" index="1" speed="100.00" length="100.00" shape="600.00,95.20 700.00,95.20"/>
        <lane id="km7_2" index="2" speed="100.00" length="100.00" shape="600.00,98.40 700.00,98.40"/>
    </edge>
    <edge id="km8" from="gneJ34" to="gneJ37" priority="-1">
        <lane id="km8_0" index="0" speed="100.00" length="100.00" shape="700.00,92.00 800.00,92.00"/>
        <lane id="km8_1" index="1" speed="100.00" length="100.00" shape="700.00,95.20 800.00,95.20"/>
        <lane id="km8_2" index="2" speed="100.00" length="100.00" shape="700.00,98.40 800.00,98.40"/>
    </edge>
    <edge id="km9" from="gneJ37" to="gneJ38" priority="-1">
        <lane id="km9_0" index="0" speed="100.00" length="100.00" shape="800.00,92.00 900.00,92.00"/>
        <lane id="km9_1" index="1" speed="100.00" length="100.00" shape="800.00,95.20 900.00,95.20"/>
        <lane id="km9_2" index="2" speed="100.00" length="100.00" shape="800.00,98.40 900.00,98.40"/>
    </edge>

    <junction id="gneJ23" type="dead_end" x="0.00" y="100.00" incLanes="" intLanes="" shape="0.00,100.00 0.00,90.40"/>
    <junction id="gneJ24" type="priority" x="100.00" y="100.00" incLanes="km1_0 km1_1 km1_2" intLanes=":gneJ24_0_0 :gneJ24_0_1 :gneJ24_0_2" shape="100.00,100.00 100.00,90.40 100.00,100.00">
        <request index="0" response="000" foes="000" cont="0"/>
        <request index="1" response="000" foes="000" cont="0"/>
        <request index="2" response="000" foes="000" cont="0"/>
    </junction>
    <junction id="gneJ27" type="priority" x="200.00" y="100.00" incLanes="km2_0 km2_1 km2_2" intLanes=":gneJ27_0_0 :gneJ27_0_1 :gneJ27_0_2" shape="200.00,100.00 200.00,90.40 200.00,100.00">
        <request index="0" response="000" foes="000" cont="0"/>
        <request index="1" response="000" foes="000" cont="0"/>
        <request index="2" response="000" foes="000" cont="0"/>
    </junction>
    <junction id="gneJ30" type="priority" x="300.00" y="100.00" incLanes="km3_0 km3_1 km3_2" intLanes=":gneJ30_0_0 :gneJ30_0_1 :gneJ30_0_2" shape="300.00,100.00 300.00,90.40 300.00,100.00">
        <request index="0" response="000" foes="000" cont="0"/>
        <request index="1" response="000" foes="000" cont="0"/>
        <request index="2" response="000" foes="000" cont="0"/>
    </junction>
    <junction id="gneJ31" type="priority" x="400.00" y="100.00" incLanes="km4_0 km4_1 km4_2" intLanes=":gneJ31_0_0 :gneJ31_0_1 :gneJ31_0_2" shape="400.00,100.00 400.00,90.40 400.00,100.00">
        <request index="0" response="000" foes="000" cont="0"/>
        <request index="1" response="000" foes="000" cont="0"/>
        <request index="2" response="000" foes="000" cont="0"/>
    </junction>
    <junction id="gneJ32" type="priority" x="500.00" y="100.00" incLanes="km5_0 km5_1 km5_2" intLanes=":gneJ32_0_0 :gneJ32_0_1 :gneJ32_0_2" shape="500.00,100.00 500.00,90.40 500.00,100.00">
        <request index="0" response="000" foes="000" cont="0"/>
        <request index="1" response="000" foes="000" cont="0"/>
        <request index="2" response="000" foes="000" cont="0"/>
    </junction>
    <junction id="gneJ33" type="priority" x="600.00" y="100.00" incLanes="km6_0 km6_1 km6_2" intLanes=":gneJ33_0_0 :gneJ33_0_1 :gneJ33_0_2" shape="600.00,100.00 600.00,90.40 600.00,100.00">
        <request index="0" response="000" foes="000" cont="0"/>
        <request index="1" response="000" foes="000" cont="0"/>
        <request index="2" response="000" foes="000" cont="0"/>
    </junction>
    <junction id="gneJ34" type="priority" x="700.00" y="100.00" incLanes="km7_0 km7_1 km7_2" intLanes=":gneJ34_0_0 :gneJ34_0_1 :gneJ34_0_2" shape="700.00,100.00 700.00,90.40 700.00,100.00">
        <request index="0" response="000" foes="000" cont="0"/>
        <request index="1" response="000" foes="000" cont="0"/>
        <request index="2" response="000" foes="000" cont="0"/>
    </junction>
    <junction id="gneJ37" type="priority" x="800.00" y="100.00" incLanes="km8_0 km8_1 km8_2" intLanes=":gneJ37_0_0 :gneJ37_0_1 :gneJ37_0_2" shape="800.00,100.00 800.00,90.40 800.00,100.00">
        <request index="0" response="000" foes="000" cont="0"/>
        <request index="1" response="000" foes="000" cont="0"/>
        <request index="2" response="000" foes="000" cont="0"/>
    </junction>
    <junction id="gneJ38" type="priority" x="900.00" y="100.00" incLanes="km9_0 km9_1 km9_2" intLanes=":gneJ38_0_0 :gneJ38_0_1 :gneJ38_0_2" shape="900.00,100.00 900.00,90.40 900.00,100.00">
        <request index="0" response="000" foes="000" cont="0"/>
        <request index="1" response="000" foes="000" cont="0"/>
        <request index="2" response="000" foes="000" cont="0"/>
    </junction>
    <junction id="gneJ39" type="dead_end" x="1000.00" y="100.00" incLanes="km10_0 km10_1 km10_2" intLanes="" shape="1000.00,90.40 1000.00,100.00"/>

    <connection from="km1" to="km2" fromLane="0" toLane="0" via=":gneJ24_0_0" dir="s" state="M"/>
    <connection from="km1" to="km2" fromLane="1" toLane="1" via=":gneJ24_0_1" dir="s" state="M"/>
    <connection from="km1" to="km2" fromLane="2" toLane="2" via=":gneJ24_0_2" dir="s" state="M"/>
    <connection from="km2" to="km3" fromLane="0" toLane="0" via=":gneJ27_0_0" dir="s" state="M"/>
    <connection from="km2" to="km3" fromLane="1" toLane="1" via=":gneJ27_0_1" dir="s" state="M"/>
    <connection from="km2" to="km3" fromLane="2" toLane="2" via=":gneJ27_0_2" dir="s" state="M"/>
    <connection from="km3" to="km4" fromLane="0" toLane="0" via=":gneJ30_0_0" dir="s" state="M"/>
    <connection from="km3" to="km4" fromLane="1" toLane="1" via=":gneJ30_0_1" dir="s" state="M"/>
    <connection from="km3" to="km4" fromLane="2" toLane="2" via=":gneJ30_0_2" dir="s" state="M"/>
    <connection from="km4" to="km5" fromLane="0" toLane="0" via=":gneJ31_0_0" dir="s" state="M"/>
    <connection from="km4" to="km5" fromLane="1" toLane="1" via=":gneJ31_0_1" dir="s" state="M"/>
    <connection from="km4" to="km5" fromLane="2" toLane="2" via=":gneJ31_0_2" dir="s" state="M"/>
    <connection from="km5" to="km6" fromLane="0" toLane="0" via=":gneJ32_0_0" dir="s" state="M"/>
    <connection from="km5" to="km6" fromLane="1" toLane="1" via=":gneJ32_0_1" dir="s" state="M"/>
    <connection from="km5" to="km6" fromLane="2" toLane="2" via=":gneJ32_0_2" dir="s" state="M"/>
    <connection from="km6" to="km7" fromLane="0" toLane="0" via=":gneJ33_0_0" dir="s" state="M"/>
    <connection from="km6" to="km7" fromLane="1" toLane="1" via=":gneJ33_0_1" dir="s" state="M"/>
    <connection from="km6" to="km7" fromLane="2" toLane="2" via=":gneJ33_0_2" dir="s" state="M"/>
    <connection from="km7" to="km8" fromLane="0" toLane="0" via=":gneJ34_0_0" dir="s" state="M"/>
    <connection from="km7" to="km8" fromLane="1" toLane="1" via=":gneJ34_0_1" dir="s" state="M"/>
    <connection from="km7" to="km8" fromLane="2" toLane="2" via=":gneJ34_0_2" dir="s" state="M"/>
    <connection from="km8" to="km9" fromLane="0" toLane="0" via=":gneJ37_0_0" dir="s" state="M"/>
    <connection from="km8" to="km9" fromLane="1" toLane="1" via=":gneJ37_0_1" dir="s" state="M"/>
    <connection from="km8" to="km9" fromLane="2" toLane="2" via=":gneJ37_0_2" dir="s" state="M"/>
    <connection from="km9" to="km10" fromLane="0" toLane="0" via=":gneJ38_0_0" dir="s" state="M"/>
    <connection from="km9" to="km10" fromLane="1" toLane="1" via=":gneJ38_0_1" dir="s" state="M"/>
    <connection from="km9" to="km10" fromLane="2" toLane="2" via=":gneJ38_0_2" dir="s" state="M"/>

    <connection from=":gneJ24_0" to="km2" fromLane="0" toLane="0" dir="s" state="M"/>
    <connection from=":gneJ24_0" to="km2" fromLane="1" toLane="1" dir="s" state="M"/>
    <connection from=":gneJ24_0" to="km2" fromLane="2" toLane="2" dir="s" state="M"/>
    <connection from=":gneJ27_0" to="km3" fromLane="0" toLane="0" dir="s" state="M"/>
    <connection from=":gneJ27_0" to="km3" fromLane="1" toLane="1" dir="s" state="M"/>
    <connection from=":gneJ27_0" to="km3" fromLane="2" toLane="2" dir="s" state="M"/>
    <connection from=":gneJ30_0" to="km4" fromLane="0" toLane="0" dir="s" state="M"/>
    <connection from=":gneJ30_0" to="km4" fromLane="1" toLane="1" dir="s" state="M"/>
    <connection from=":gneJ30_0" to="km4" fromLane="2" toLane="2" dir="s" state="M"/>
    <connection from=":gneJ31_0" to="km5" fromLane="0" toLane="0" dir="s" state="M"/>
    <connection from=":gneJ31_0" to="km5" fromLane="1" toLane="1" dir="s" state="M"/>
    <connection from=":gneJ31_0" to="km5" fromLane="2" toLane="2" dir="s" state="M"/>
    <connection from=":gneJ32_0" to="km6" fromLane="0" toLane="0" dir="s" state="M"/>
    <connection from=":gneJ32_0" to="km6" fromLane="1" toLane="1" dir="s" state="M"/>
    <connection from=":gneJ32_0" to="km6" fromLane="2" toLane="2" dir="s" state="M"/>
    <connection from=":gneJ33_0" to="km7" fromLane="0" toLane="0" dir="s" state="M"/>
    <connection from=":gneJ33_0" to="km7" fromLane="1" toLane="1" dir="s" state="M"/>
    <connection from=":gneJ33_0" to="km7" fromLane="2" toLane="2" dir="s" state="M"/>
    <connection from=":gneJ34_0" to="km8" fromLane="0" toLane="0" dir="s" state="M"/>
    <connection from=":gneJ34_0" to="km8" fromLane="1" toLane="1" dir="s" state="M"/>
    <connection from=":gneJ34_0" to="km8" fromLane="2" toLane="2" dir="s" state="M"/>
    <connection from=":gneJ37_0" to="km9" fromLane="0" toLane="0" dir="s" state="M"/>
    <connection from=":gneJ37_0" to="km9" fromLane="1" toLane="1" dir="s" state="M"/>
    <connection from=":gneJ37_0" to="km9" fromLane="2" toLane="2" dir="s" state="M"/>
    <connection from=":gneJ38_0" to="km10" fromLane="0" toLane="0" dir="s" state="M"/>
    <connection from=":gneJ38_0" to="km10" fromLane="1" toLane="1" dir="s" state="M"/>
    <connection from=":gneJ38_0" to="km10" fromLane="2" toLane="2" dir="s" state="M"/>

</net>
